*SPEF "ieee 1481-1999"
*DESIGN "wishbone_sram"
*DATE "16:11:08 Thursday May 09, 2024"
*VENDOR "The OpenROAD Project"
*PROGRAM "OpenROAD"
*VERSION "da0053d7b0014ab9c87ea148875ff6c2a0f9b658"
*DESIGN_FLOW "NAME_SCOPE LOCAL" "PIN_CAP NONE"
*DIVIDER /
*DELIMITER :
*BUS_DELIMITER []
*T_UNIT 1 NS
*C_UNIT 1 PF
*R_UNIT 1 OHM
*L_UNIT 1 HENRY

*NAME_MAP
*1 sram_selected
*4 wb_clk_i
*5 wb_rst_i
*6 wbs_ack_o
*7 wbs_adr_i[0]
*8 wbs_adr_i[10]
*9 wbs_adr_i[11]
*10 wbs_adr_i[12]
*11 wbs_adr_i[13]
*12 wbs_adr_i[14]
*13 wbs_adr_i[15]
*14 wbs_adr_i[16]
*15 wbs_adr_i[17]
*16 wbs_adr_i[18]
*17 wbs_adr_i[19]
*18 wbs_adr_i[1]
*19 wbs_adr_i[20]
*20 wbs_adr_i[21]
*21 wbs_adr_i[22]
*22 wbs_adr_i[23]
*23 wbs_adr_i[24]
*24 wbs_adr_i[25]
*25 wbs_adr_i[26]
*26 wbs_adr_i[27]
*27 wbs_adr_i[28]
*28 wbs_adr_i[29]
*29 wbs_adr_i[2]
*30 wbs_adr_i[30]
*31 wbs_adr_i[31]
*32 wbs_adr_i[3]
*33 wbs_adr_i[4]
*34 wbs_adr_i[5]
*35 wbs_adr_i[6]
*36 wbs_adr_i[7]
*37 wbs_adr_i[8]
*38 wbs_adr_i[9]
*39 wbs_cyc_i
*40 wbs_dat_i[0]
*41 wbs_dat_i[10]
*42 wbs_dat_i[11]
*43 wbs_dat_i[12]
*44 wbs_dat_i[13]
*45 wbs_dat_i[14]
*46 wbs_dat_i[15]
*47 wbs_dat_i[16]
*48 wbs_dat_i[17]
*49 wbs_dat_i[18]
*50 wbs_dat_i[19]
*51 wbs_dat_i[1]
*52 wbs_dat_i[20]
*53 wbs_dat_i[21]
*54 wbs_dat_i[22]
*55 wbs_dat_i[23]
*56 wbs_dat_i[24]
*57 wbs_dat_i[25]
*58 wbs_dat_i[26]
*59 wbs_dat_i[27]
*60 wbs_dat_i[28]
*61 wbs_dat_i[29]
*62 wbs_dat_i[2]
*63 wbs_dat_i[30]
*64 wbs_dat_i[31]
*65 wbs_dat_i[3]
*66 wbs_dat_i[4]
*67 wbs_dat_i[5]
*68 wbs_dat_i[6]
*69 wbs_dat_i[7]
*70 wbs_dat_i[8]
*71 wbs_dat_i[9]
*72 wbs_dat_o[0]
*73 wbs_dat_o[10]
*74 wbs_dat_o[11]
*75 wbs_dat_o[12]
*76 wbs_dat_o[13]
*77 wbs_dat_o[14]
*78 wbs_dat_o[15]
*79 wbs_dat_o[16]
*80 wbs_dat_o[17]
*81 wbs_dat_o[18]
*82 wbs_dat_o[19]
*83 wbs_dat_o[1]
*84 wbs_dat_o[20]
*85 wbs_dat_o[21]
*86 wbs_dat_o[22]
*87 wbs_dat_o[23]
*88 wbs_dat_o[24]
*89 wbs_dat_o[25]
*90 wbs_dat_o[26]
*91 wbs_dat_o[27]
*92 wbs_dat_o[28]
*93 wbs_dat_o[29]
*94 wbs_dat_o[2]
*95 wbs_dat_o[30]
*96 wbs_dat_o[31]
*97 wbs_dat_o[3]
*98 wbs_dat_o[4]
*99 wbs_dat_o[5]
*100 wbs_dat_o[6]
*101 wbs_dat_o[7]
*102 wbs_dat_o[8]
*103 wbs_dat_o[9]
*104 wbs_sel_i[0]
*105 wbs_sel_i[1]
*106 wbs_sel_i[2]
*107 wbs_sel_i[3]
*108 wbs_stb_i
*109 wbs_we_i
*110 _000_
*111 _001_
*112 _002_
*113 _003_
*114 _004_
*115 _005_
*116 _006_
*117 _007_
*118 _008_
*119 _009_
*120 _010_
*121 _011_
*122 _012_
*123 _013_
*124 _014_
*125 _015_
*126 _016_
*127 _017_
*128 _018_
*129 _019_
*130 _020_
*131 _021_
*132 _022_
*133 _023_
*134 _024_
*135 _025_
*136 _026_
*137 _027_
*138 _028_
*139 _029_
*140 _030_
*141 _031_
*142 _032_
*143 _033_
*144 _034_
*145 _035_
*146 _036_
*147 _037_
*148 _038_
*149 _039_
*150 clknet_0_wb_clk_i
*151 clknet_1_0__leaf_wb_clk_i
*152 clknet_1_1__leaf_wb_clk_i
*153 net1
*154 net10
*155 net100
*156 net101
*157 net102
*158 net103
*159 net104
*160 net105
*161 net106
*162 net107
*163 net108
*164 net109
*165 net11
*166 net110
*167 net111
*168 net112
*169 net113
*170 net114
*171 net115
*172 net116
*173 net117
*174 net118
*175 net119
*176 net12
*177 net120
*178 net121
*179 net122
*180 net123
*181 net124
*182 net125
*183 net126
*184 net127
*185 net128
*186 net129
*187 net13
*188 net130
*189 net131
*190 net132
*191 net133
*192 net134
*193 net135
*194 net136
*195 net137
*196 net138
*197 net139
*198 net14
*199 net140
*200 net141
*201 net142
*202 net143
*203 net144
*204 net145
*205 net146
*206 net147
*207 net148
*208 net149
*209 net15
*210 net150
*211 net151
*212 net152
*213 net153
*214 net154
*215 net155
*216 net156
*217 net157
*218 net158
*219 net159
*220 net16
*221 net160
*222 net161
*223 net162
*224 net163
*225 net164
*226 net165
*227 net166
*228 net167
*229 net168
*230 net169
*231 net17
*232 net170
*233 net171
*234 net172
*235 net173
*236 net174
*237 net175
*238 net176
*239 net177
*240 net178
*241 net179
*242 net18
*243 net180
*244 net181
*245 net182
*246 net183
*247 net184
*248 net185
*249 net186
*250 net187
*251 net188
*252 net189
*253 net19
*254 net190
*255 net191
*256 net192
*257 net193
*258 net194
*259 net195
*260 net196
*261 net197
*262 net198
*263 net199
*264 net2
*265 net20
*266 net200
*267 net201
*268 net202
*269 net203
*270 net204
*271 net205
*272 net206
*273 net207
*274 net208
*275 net209
*276 net21
*277 net210
*278 net211
*279 net212
*280 net213
*281 net214
*282 net215
*283 net216
*284 net217
*285 net218
*286 net219
*287 net22
*288 net220
*289 net221
*290 net222
*291 net223
*292 net224
*293 net225
*294 net226
*295 net227
*296 net228
*297 net229
*298 net23
*299 net230
*300 net231
*301 net232
*302 net233
*303 net234
*304 net235
*305 net236
*306 net237
*307 net238
*308 net24
*309 net25
*310 net26
*311 net27
*312 net28
*313 net29
*314 net3
*315 net30
*316 net31
*317 net32
*318 net33
*319 net34
*320 net35
*321 net36
*322 net37
*323 net38
*324 net39
*325 net4
*326 net40
*327 net41
*328 net42
*329 net43
*330 net44
*331 net45
*332 net46
*333 net47
*334 net48
*335 net49
*336 net5
*337 net50
*338 net51
*339 net52
*340 net53
*341 net54
*342 net55
*343 net56
*344 net57
*345 net58
*346 net59
*347 net6
*348 net60
*349 net61
*350 net62
*351 net63
*352 net64
*353 net65
*354 net66
*355 net67
*356 net68
*357 net69
*358 net7
*359 net70
*360 net71
*361 net72
*362 net73
*363 net74
*364 net75
*365 net76
*366 net77
*367 net78
*368 net79
*369 net8
*370 net80
*371 net81
*372 net82
*373 net83
*374 net84
*375 net85
*376 net86
*377 net87
*378 net88
*379 net89
*380 net9
*381 net90
*382 net91
*383 net92
*384 net93
*385 net94
*386 net95
*387 net96
*388 net97
*389 net98
*390 net99
*391 ram_controller\.DO\[0\]
*392 ram_controller\.DO\[10\]
*393 ram_controller\.DO\[11\]
*394 ram_controller\.DO\[12\]
*395 ram_controller\.DO\[13\]
*396 ram_controller\.DO\[14\]
*397 ram_controller\.DO\[15\]
*398 ram_controller\.DO\[16\]
*399 ram_controller\.DO\[17\]
*400 ram_controller\.DO\[18\]
*401 ram_controller\.DO\[19\]
*402 ram_controller\.DO\[1\]
*403 ram_controller\.DO\[20\]
*404 ram_controller\.DO\[21\]
*405 ram_controller\.DO\[22\]
*406 ram_controller\.DO\[23\]
*407 ram_controller\.DO\[24\]
*408 ram_controller\.DO\[25\]
*409 ram_controller\.DO\[26\]
*410 ram_controller\.DO\[27\]
*411 ram_controller\.DO\[28\]
*412 ram_controller\.DO\[29\]
*413 ram_controller\.DO\[2\]
*414 ram_controller\.DO\[30\]
*415 ram_controller\.DO\[31\]
*416 ram_controller\.DO\[3\]
*417 ram_controller\.DO\[4\]
*418 ram_controller\.DO\[5\]
*419 ram_controller\.DO\[6\]
*420 ram_controller\.DO\[7\]
*421 ram_controller\.DO\[8\]
*422 ram_controller\.DO\[9\]
*423 ram_controller\.EN
*424 ram_controller\.R_WB
*425 ram_controller\.wbs_ack_o
*426 FILLER_0_0_109
*427 FILLER_0_0_113
*428 FILLER_0_0_125
*429 FILLER_0_0_137
*430 FILLER_0_0_141
*431 FILLER_0_0_15
*432 FILLER_0_0_153
*433 FILLER_0_0_159
*434 FILLER_0_0_195
*435 FILLER_0_0_197
*436 FILLER_0_0_220
*437 FILLER_0_0_225
*438 FILLER_0_0_253
*439 FILLER_0_0_27
*440 FILLER_0_0_281
*441 FILLER_0_0_3
*442 FILLER_0_0_337
*443 FILLER_0_0_365
*444 FILLER_0_0_393
*445 FILLER_0_0_418
*446 FILLER_0_0_445
*447 FILLER_0_0_45
*448 FILLER_0_0_529
*449 FILLER_0_0_53
*450 FILLER_0_0_557
*451 FILLER_0_0_57
*452 FILLER_0_0_585
*453 FILLER_0_0_613
*454 FILLER_0_0_617
*455 FILLER_0_0_642
*456 FILLER_0_0_669
*457 FILLER_0_0_69
*458 FILLER_0_0_697
*459 FILLER_0_0_707
*460 FILLER_0_0_724
*461 FILLER_0_0_753
*462 FILLER_0_0_757
*463 FILLER_0_0_761
*464 FILLER_0_0_81
*465 FILLER_0_0_85
*466 FILLER_0_0_97
*467 FILLER_0_100_702
*468 FILLER_0_100_714
*469 FILLER_0_100_726
*470 FILLER_0_100_728
*471 FILLER_0_100_740
*472 FILLER_0_100_752
*473 FILLER_0_100_764
*474 FILLER_0_100_776
*475 FILLER_0_100_782
*476 FILLER_0_100_784
*477 FILLER_0_100_796
*478 FILLER_0_100_800
*479 FILLER_0_101_702
*480 FILLER_0_101_714
*481 FILLER_0_101_726
*482 FILLER_0_101_738
*483 FILLER_0_101_750
*484 FILLER_0_101_754
*485 FILLER_0_101_756
*486 FILLER_0_101_768
*487 FILLER_0_101_780
*488 FILLER_0_101_792
*489 FILLER_0_101_800
*490 FILLER_0_102_702
*491 FILLER_0_102_714
*492 FILLER_0_102_726
*493 FILLER_0_102_728
*494 FILLER_0_102_740
*495 FILLER_0_102_752
*496 FILLER_0_102_764
*497 FILLER_0_102_776
*498 FILLER_0_102_782
*499 FILLER_0_102_784
*500 FILLER_0_102_796
*501 FILLER_0_102_800
*502 FILLER_0_103_702
*503 FILLER_0_103_714
*504 FILLER_0_103_726
*505 FILLER_0_103_738
*506 FILLER_0_103_750
*507 FILLER_0_103_754
*508 FILLER_0_103_756
*509 FILLER_0_103_768
*510 FILLER_0_103_780
*511 FILLER_0_103_792
*512 FILLER_0_103_800
*513 FILLER_0_104_702
*514 FILLER_0_104_714
*515 FILLER_0_104_726
*516 FILLER_0_104_728
*517 FILLER_0_104_740
*518 FILLER_0_104_752
*519 FILLER_0_104_764
*520 FILLER_0_104_776
*521 FILLER_0_104_782
*522 FILLER_0_104_784
*523 FILLER_0_104_796
*524 FILLER_0_104_800
*525 FILLER_0_105_702
*526 FILLER_0_105_714
*527 FILLER_0_105_726
*528 FILLER_0_105_738
*529 FILLER_0_105_750
*530 FILLER_0_105_754
*531 FILLER_0_105_756
*532 FILLER_0_105_768
*533 FILLER_0_105_780
*534 FILLER_0_105_792
*535 FILLER_0_105_800
*536 FILLER_0_106_702
*537 FILLER_0_106_714
*538 FILLER_0_106_726
*539 FILLER_0_106_728
*540 FILLER_0_106_740
*541 FILLER_0_106_752
*542 FILLER_0_106_764
*543 FILLER_0_106_776
*544 FILLER_0_106_782
*545 FILLER_0_106_784
*546 FILLER_0_106_796
*547 FILLER_0_106_800
*548 FILLER_0_107_702
*549 FILLER_0_107_714
*550 FILLER_0_107_726
*551 FILLER_0_107_738
*552 FILLER_0_107_750
*553 FILLER_0_107_754
*554 FILLER_0_107_756
*555 FILLER_0_107_768
*556 FILLER_0_107_780
*557 FILLER_0_107_792
*558 FILLER_0_107_800
*559 FILLER_0_108_702
*560 FILLER_0_108_714
*561 FILLER_0_108_726
*562 FILLER_0_108_728
*563 FILLER_0_108_740
*564 FILLER_0_108_752
*565 FILLER_0_108_764
*566 FILLER_0_108_776
*567 FILLER_0_108_782
*568 FILLER_0_108_784
*569 FILLER_0_108_796
*570 FILLER_0_108_800
*571 FILLER_0_109_702
*572 FILLER_0_109_714
*573 FILLER_0_109_726
*574 FILLER_0_109_738
*575 FILLER_0_109_750
*576 FILLER_0_109_754
*577 FILLER_0_109_756
*578 FILLER_0_109_768
*579 FILLER_0_109_780
*580 FILLER_0_109_792
*581 FILLER_0_109_800
*582 FILLER_0_10_702
*583 FILLER_0_10_714
*584 FILLER_0_10_726
*585 FILLER_0_10_728
*586 FILLER_0_10_740
*587 FILLER_0_10_752
*588 FILLER_0_10_764
*589 FILLER_0_10_776
*590 FILLER_0_10_782
*591 FILLER_0_10_784
*592 FILLER_0_10_796
*593 FILLER_0_10_800
*594 FILLER_0_110_702
*595 FILLER_0_110_714
*596 FILLER_0_110_726
*597 FILLER_0_110_728
*598 FILLER_0_110_740
*599 FILLER_0_110_752
*600 FILLER_0_110_764
*601 FILLER_0_110_776
*602 FILLER_0_110_782
*603 FILLER_0_110_784
*604 FILLER_0_110_796
*605 FILLER_0_110_800
*606 FILLER_0_111_702
*607 FILLER_0_111_714
*608 FILLER_0_111_726
*609 FILLER_0_111_738
*610 FILLER_0_111_750
*611 FILLER_0_111_754
*612 FILLER_0_111_756
*613 FILLER_0_111_768
*614 FILLER_0_111_780
*615 FILLER_0_111_792
*616 FILLER_0_111_800
*617 FILLER_0_112_702
*618 FILLER_0_112_714
*619 FILLER_0_112_726
*620 FILLER_0_112_728
*621 FILLER_0_112_740
*622 FILLER_0_112_752
*623 FILLER_0_112_764
*624 FILLER_0_112_776
*625 FILLER_0_112_782
*626 FILLER_0_112_784
*627 FILLER_0_112_796
*628 FILLER_0_112_800
*629 FILLER_0_113_702
*630 FILLER_0_113_714
*631 FILLER_0_113_726
*632 FILLER_0_113_738
*633 FILLER_0_113_750
*634 FILLER_0_113_754
*635 FILLER_0_113_756
*636 FILLER_0_113_768
*637 FILLER_0_113_780
*638 FILLER_0_113_792
*639 FILLER_0_113_800
*640 FILLER_0_114_702
*641 FILLER_0_114_714
*642 FILLER_0_114_726
*643 FILLER_0_114_728
*644 FILLER_0_114_740
*645 FILLER_0_114_752
*646 FILLER_0_114_764
*647 FILLER_0_114_776
*648 FILLER_0_114_782
*649 FILLER_0_114_784
*650 FILLER_0_114_796
*651 FILLER_0_114_800
*652 FILLER_0_115_702
*653 FILLER_0_115_714
*654 FILLER_0_115_726
*655 FILLER_0_115_738
*656 FILLER_0_115_750
*657 FILLER_0_115_754
*658 FILLER_0_115_756
*659 FILLER_0_115_768
*660 FILLER_0_115_780
*661 FILLER_0_115_792
*662 FILLER_0_115_800
*663 FILLER_0_116_702
*664 FILLER_0_116_714
*665 FILLER_0_116_726
*666 FILLER_0_116_728
*667 FILLER_0_116_740
*668 FILLER_0_116_752
*669 FILLER_0_116_764
*670 FILLER_0_116_776
*671 FILLER_0_116_782
*672 FILLER_0_116_784
*673 FILLER_0_116_796
*674 FILLER_0_116_800
*675 FILLER_0_117_702
*676 FILLER_0_117_714
*677 FILLER_0_117_726
*678 FILLER_0_117_738
*679 FILLER_0_117_750
*680 FILLER_0_117_754
*681 FILLER_0_117_756
*682 FILLER_0_117_768
*683 FILLER_0_117_780
*684 FILLER_0_117_792
*685 FILLER_0_117_800
*686 FILLER_0_118_702
*687 FILLER_0_118_714
*688 FILLER_0_118_726
*689 FILLER_0_118_728
*690 FILLER_0_118_740
*691 FILLER_0_118_752
*692 FILLER_0_118_764
*693 FILLER_0_118_776
*694 FILLER_0_118_782
*695 FILLER_0_118_784
*696 FILLER_0_118_796
*697 FILLER_0_118_800
*698 FILLER_0_119_702
*699 FILLER_0_119_714
*700 FILLER_0_119_726
*701 FILLER_0_119_738
*702 FILLER_0_119_750
*703 FILLER_0_119_754
*704 FILLER_0_119_756
*705 FILLER_0_119_768
*706 FILLER_0_119_780
*707 FILLER_0_119_792
*708 FILLER_0_119_800
*709 FILLER_0_11_702
*710 FILLER_0_11_714
*711 FILLER_0_11_726
*712 FILLER_0_11_738
*713 FILLER_0_11_750
*714 FILLER_0_11_754
*715 FILLER_0_11_756
*716 FILLER_0_11_768
*717 FILLER_0_11_780
*718 FILLER_0_11_792
*719 FILLER_0_11_800
*720 FILLER_0_120_702
*721 FILLER_0_120_714
*722 FILLER_0_120_726
*723 FILLER_0_120_728
*724 FILLER_0_120_740
*725 FILLER_0_120_752
*726 FILLER_0_120_764
*727 FILLER_0_120_776
*728 FILLER_0_120_782
*729 FILLER_0_120_784
*730 FILLER_0_120_796
*731 FILLER_0_120_800
*732 FILLER_0_121_702
*733 FILLER_0_121_714
*734 FILLER_0_121_726
*735 FILLER_0_121_738
*736 FILLER_0_121_750
*737 FILLER_0_121_754
*738 FILLER_0_121_756
*739 FILLER_0_121_768
*740 FILLER_0_121_780
*741 FILLER_0_121_792
*742 FILLER_0_121_800
*743 FILLER_0_122_702
*744 FILLER_0_122_714
*745 FILLER_0_122_726
*746 FILLER_0_122_728
*747 FILLER_0_122_740
*748 FILLER_0_122_752
*749 FILLER_0_122_764
*750 FILLER_0_122_776
*751 FILLER_0_122_782
*752 FILLER_0_122_784
*753 FILLER_0_122_796
*754 FILLER_0_122_800
*755 FILLER_0_123_702
*756 FILLER_0_123_714
*757 FILLER_0_123_726
*758 FILLER_0_123_738
*759 FILLER_0_123_750
*760 FILLER_0_123_754
*761 FILLER_0_123_756
*762 FILLER_0_123_768
*763 FILLER_0_123_780
*764 FILLER_0_123_792
*765 FILLER_0_123_800
*766 FILLER_0_124_702
*767 FILLER_0_124_714
*768 FILLER_0_124_726
*769 FILLER_0_124_728
*770 FILLER_0_124_740
*771 FILLER_0_124_752
*772 FILLER_0_124_764
*773 FILLER_0_124_776
*774 FILLER_0_124_782
*775 FILLER_0_124_784
*776 FILLER_0_124_796
*777 FILLER_0_124_800
*778 FILLER_0_125_702
*779 FILLER_0_125_714
*780 FILLER_0_125_726
*781 FILLER_0_125_738
*782 FILLER_0_125_750
*783 FILLER_0_125_754
*784 FILLER_0_125_756
*785 FILLER_0_125_768
*786 FILLER_0_125_780
*787 FILLER_0_125_792
*788 FILLER_0_125_800
*789 FILLER_0_126_702
*790 FILLER_0_126_714
*791 FILLER_0_126_726
*792 FILLER_0_126_728
*793 FILLER_0_126_740
*794 FILLER_0_126_752
*795 FILLER_0_126_764
*796 FILLER_0_126_776
*797 FILLER_0_126_782
*798 FILLER_0_126_784
*799 FILLER_0_126_796
*800 FILLER_0_126_800
*801 FILLER_0_127_702
*802 FILLER_0_127_714
*803 FILLER_0_127_726
*804 FILLER_0_127_738
*805 FILLER_0_127_750
*806 FILLER_0_127_754
*807 FILLER_0_127_756
*808 FILLER_0_127_768
*809 FILLER_0_127_780
*810 FILLER_0_127_792
*811 FILLER_0_127_800
*812 FILLER_0_128_702
*813 FILLER_0_128_714
*814 FILLER_0_128_726
*815 FILLER_0_128_728
*816 FILLER_0_128_740
*817 FILLER_0_128_752
*818 FILLER_0_128_764
*819 FILLER_0_128_776
*820 FILLER_0_128_782
*821 FILLER_0_128_784
*822 FILLER_0_128_796
*823 FILLER_0_128_800
*824 FILLER_0_129_702
*825 FILLER_0_129_714
*826 FILLER_0_129_726
*827 FILLER_0_129_738
*828 FILLER_0_129_750
*829 FILLER_0_129_754
*830 FILLER_0_129_756
*831 FILLER_0_129_768
*832 FILLER_0_129_780
*833 FILLER_0_129_792
*834 FILLER_0_129_800
*835 FILLER_0_12_702
*836 FILLER_0_12_714
*837 FILLER_0_12_726
*838 FILLER_0_12_728
*839 FILLER_0_12_740
*840 FILLER_0_12_752
*841 FILLER_0_12_764
*842 FILLER_0_12_776
*843 FILLER_0_12_782
*844 FILLER_0_12_784
*845 FILLER_0_12_796
*846 FILLER_0_12_800
*847 FILLER_0_130_702
*848 FILLER_0_130_714
*849 FILLER_0_130_726
*850 FILLER_0_130_728
*851 FILLER_0_130_740
*852 FILLER_0_130_752
*853 FILLER_0_130_764
*854 FILLER_0_130_776
*855 FILLER_0_130_782
*856 FILLER_0_130_784
*857 FILLER_0_130_796
*858 FILLER_0_130_800
*859 FILLER_0_131_702
*860 FILLER_0_131_714
*861 FILLER_0_131_726
*862 FILLER_0_131_738
*863 FILLER_0_131_750
*864 FILLER_0_131_754
*865 FILLER_0_131_756
*866 FILLER_0_131_768
*867 FILLER_0_131_780
*868 FILLER_0_131_792
*869 FILLER_0_131_800
*870 FILLER_0_132_702
*871 FILLER_0_132_714
*872 FILLER_0_132_726
*873 FILLER_0_132_728
*874 FILLER_0_132_740
*875 FILLER_0_132_752
*876 FILLER_0_132_764
*877 FILLER_0_132_776
*878 FILLER_0_132_782
*879 FILLER_0_132_784
*880 FILLER_0_132_796
*881 FILLER_0_132_800
*882 FILLER_0_133_702
*883 FILLER_0_133_714
*884 FILLER_0_133_726
*885 FILLER_0_133_738
*886 FILLER_0_133_750
*887 FILLER_0_133_754
*888 FILLER_0_133_756
*889 FILLER_0_133_768
*890 FILLER_0_133_780
*891 FILLER_0_133_792
*892 FILLER_0_133_800
*893 FILLER_0_134_702
*894 FILLER_0_134_714
*895 FILLER_0_134_726
*896 FILLER_0_134_728
*897 FILLER_0_134_740
*898 FILLER_0_134_752
*899 FILLER_0_134_764
*900 FILLER_0_134_776
*901 FILLER_0_134_782
*902 FILLER_0_134_784
*903 FILLER_0_134_796
*904 FILLER_0_134_800
*905 FILLER_0_135_702
*906 FILLER_0_135_714
*907 FILLER_0_135_726
*908 FILLER_0_135_738
*909 FILLER_0_135_750
*910 FILLER_0_135_754
*911 FILLER_0_135_756
*912 FILLER_0_135_768
*913 FILLER_0_135_780
*914 FILLER_0_135_792
*915 FILLER_0_135_800
*916 FILLER_0_136_702
*917 FILLER_0_136_714
*918 FILLER_0_136_726
*919 FILLER_0_136_728
*920 FILLER_0_136_740
*921 FILLER_0_136_752
*922 FILLER_0_136_764
*923 FILLER_0_136_776
*924 FILLER_0_136_782
*925 FILLER_0_136_784
*926 FILLER_0_136_796
*927 FILLER_0_136_800
*928 FILLER_0_137_702
*929 FILLER_0_137_714
*930 FILLER_0_137_726
*931 FILLER_0_137_738
*932 FILLER_0_137_750
*933 FILLER_0_137_754
*934 FILLER_0_137_756
*935 FILLER_0_137_768
*936 FILLER_0_137_780
*937 FILLER_0_137_792
*938 FILLER_0_137_800
*939 FILLER_0_138_702
*940 FILLER_0_138_714
*941 FILLER_0_138_726
*942 FILLER_0_138_728
*943 FILLER_0_138_740
*944 FILLER_0_138_752
*945 FILLER_0_138_764
*946 FILLER_0_138_776
*947 FILLER_0_138_782
*948 FILLER_0_138_784
*949 FILLER_0_138_796
*950 FILLER_0_138_800
*951 FILLER_0_139_702
*952 FILLER_0_139_714
*953 FILLER_0_139_726
*954 FILLER_0_139_738
*955 FILLER_0_139_750
*956 FILLER_0_139_754
*957 FILLER_0_139_756
*958 FILLER_0_139_768
*959 FILLER_0_139_780
*960 FILLER_0_139_792
*961 FILLER_0_139_800
*962 FILLER_0_13_702
*963 FILLER_0_13_714
*964 FILLER_0_13_726
*965 FILLER_0_13_738
*966 FILLER_0_13_750
*967 FILLER_0_13_754
*968 FILLER_0_13_756
*969 FILLER_0_13_768
*970 FILLER_0_13_780
*971 FILLER_0_13_792
*972 FILLER_0_13_800
*973 FILLER_0_140_702
*974 FILLER_0_140_714
*975 FILLER_0_140_726
*976 FILLER_0_140_728
*977 FILLER_0_140_740
*978 FILLER_0_140_752
*979 FILLER_0_140_764
*980 FILLER_0_140_776
*981 FILLER_0_140_782
*982 FILLER_0_140_784
*983 FILLER_0_140_796
*984 FILLER_0_140_800
*985 FILLER_0_141_702
*986 FILLER_0_141_714
*987 FILLER_0_141_726
*988 FILLER_0_141_738
*989 FILLER_0_141_750
*990 FILLER_0_141_754
*991 FILLER_0_141_756
*992 FILLER_0_141_768
*993 FILLER_0_141_780
*994 FILLER_0_141_792
*995 FILLER_0_141_800
*996 FILLER_0_142_702
*997 FILLER_0_142_714
*998 FILLER_0_142_726
*999 FILLER_0_142_728
*1000 FILLER_0_142_740
*1001 FILLER_0_142_752
*1002 FILLER_0_142_764
*1003 FILLER_0_142_776
*1004 FILLER_0_142_782
*1005 FILLER_0_142_784
*1006 FILLER_0_142_796
*1007 FILLER_0_142_800
*1008 FILLER_0_143_702
*1009 FILLER_0_143_714
*1010 FILLER_0_143_726
*1011 FILLER_0_143_738
*1012 FILLER_0_143_750
*1013 FILLER_0_143_754
*1014 FILLER_0_143_756
*1015 FILLER_0_143_768
*1016 FILLER_0_143_780
*1017 FILLER_0_143_792
*1018 FILLER_0_143_800
*1019 FILLER_0_144_702
*1020 FILLER_0_144_714
*1021 FILLER_0_144_726
*1022 FILLER_0_144_728
*1023 FILLER_0_144_740
*1024 FILLER_0_144_752
*1025 FILLER_0_144_764
*1026 FILLER_0_144_776
*1027 FILLER_0_144_782
*1028 FILLER_0_144_784
*1029 FILLER_0_144_796
*1030 FILLER_0_144_800
*1031 FILLER_0_145_702
*1032 FILLER_0_145_714
*1033 FILLER_0_145_726
*1034 FILLER_0_145_738
*1035 FILLER_0_145_750
*1036 FILLER_0_145_754
*1037 FILLER_0_145_756
*1038 FILLER_0_145_768
*1039 FILLER_0_145_780
*1040 FILLER_0_145_792
*1041 FILLER_0_145_800
*1042 FILLER_0_146_702
*1043 FILLER_0_146_714
*1044 FILLER_0_146_726
*1045 FILLER_0_146_728
*1046 FILLER_0_146_740
*1047 FILLER_0_146_752
*1048 FILLER_0_146_764
*1049 FILLER_0_146_776
*1050 FILLER_0_146_782
*1051 FILLER_0_146_784
*1052 FILLER_0_146_796
*1053 FILLER_0_146_800
*1054 FILLER_0_147_702
*1055 FILLER_0_147_714
*1056 FILLER_0_147_726
*1057 FILLER_0_147_738
*1058 FILLER_0_147_750
*1059 FILLER_0_147_754
*1060 FILLER_0_147_756
*1061 FILLER_0_147_768
*1062 FILLER_0_147_780
*1063 FILLER_0_147_792
*1064 FILLER_0_147_800
*1065 FILLER_0_148_702
*1066 FILLER_0_148_714
*1067 FILLER_0_148_726
*1068 FILLER_0_148_728
*1069 FILLER_0_148_740
*1070 FILLER_0_148_752
*1071 FILLER_0_148_764
*1072 FILLER_0_148_776
*1073 FILLER_0_148_782
*1074 FILLER_0_148_784
*1075 FILLER_0_148_796
*1076 FILLER_0_148_800
*1077 FILLER_0_149_702
*1078 FILLER_0_149_714
*1079 FILLER_0_149_726
*1080 FILLER_0_149_738
*1081 FILLER_0_149_750
*1082 FILLER_0_149_754
*1083 FILLER_0_149_756
*1084 FILLER_0_149_768
*1085 FILLER_0_149_780
*1086 FILLER_0_149_792
*1087 FILLER_0_149_800
*1088 FILLER_0_14_702
*1089 FILLER_0_14_714
*1090 FILLER_0_14_726
*1091 FILLER_0_14_728
*1092 FILLER_0_14_740
*1093 FILLER_0_14_752
*1094 FILLER_0_14_764
*1095 FILLER_0_14_776
*1096 FILLER_0_14_782
*1097 FILLER_0_14_784
*1098 FILLER_0_14_796
*1099 FILLER_0_14_800
*1100 FILLER_0_150_702
*1101 FILLER_0_150_714
*1102 FILLER_0_150_726
*1103 FILLER_0_150_728
*1104 FILLER_0_150_740
*1105 FILLER_0_150_752
*1106 FILLER_0_150_764
*1107 FILLER_0_150_776
*1108 FILLER_0_150_782
*1109 FILLER_0_150_784
*1110 FILLER_0_150_796
*1111 FILLER_0_150_800
*1112 FILLER_0_151_702
*1113 FILLER_0_151_714
*1114 FILLER_0_151_726
*1115 FILLER_0_151_738
*1116 FILLER_0_151_750
*1117 FILLER_0_151_754
*1118 FILLER_0_151_756
*1119 FILLER_0_151_768
*1120 FILLER_0_151_780
*1121 FILLER_0_151_792
*1122 FILLER_0_151_800
*1123 FILLER_0_152_702
*1124 FILLER_0_152_714
*1125 FILLER_0_152_726
*1126 FILLER_0_152_728
*1127 FILLER_0_152_740
*1128 FILLER_0_152_752
*1129 FILLER_0_152_764
*1130 FILLER_0_152_776
*1131 FILLER_0_152_782
*1132 FILLER_0_152_784
*1133 FILLER_0_152_796
*1134 FILLER_0_152_800
*1135 FILLER_0_153_702
*1136 FILLER_0_153_714
*1137 FILLER_0_153_726
*1138 FILLER_0_153_738
*1139 FILLER_0_153_750
*1140 FILLER_0_153_754
*1141 FILLER_0_153_756
*1142 FILLER_0_153_768
*1143 FILLER_0_153_780
*1144 FILLER_0_153_792
*1145 FILLER_0_153_800
*1146 FILLER_0_154_702
*1147 FILLER_0_154_714
*1148 FILLER_0_154_726
*1149 FILLER_0_154_728
*1150 FILLER_0_154_740
*1151 FILLER_0_154_752
*1152 FILLER_0_154_764
*1153 FILLER_0_154_776
*1154 FILLER_0_154_782
*1155 FILLER_0_154_784
*1156 FILLER_0_154_796
*1157 FILLER_0_154_800
*1158 FILLER_0_155_702
*1159 FILLER_0_155_714
*1160 FILLER_0_155_726
*1161 FILLER_0_155_728
*1162 FILLER_0_155_740
*1163 FILLER_0_155_752
*1164 FILLER_0_155_756
*1165 FILLER_0_155_768
*1166 FILLER_0_155_780
*1167 FILLER_0_155_784
*1168 FILLER_0_155_796
*1169 FILLER_0_155_800
*1170 FILLER_0_15_702
*1171 FILLER_0_15_714
*1172 FILLER_0_15_726
*1173 FILLER_0_15_738
*1174 FILLER_0_15_750
*1175 FILLER_0_15_754
*1176 FILLER_0_15_756
*1177 FILLER_0_15_768
*1178 FILLER_0_15_780
*1179 FILLER_0_15_792
*1180 FILLER_0_15_800
*1181 FILLER_0_16_702
*1182 FILLER_0_16_714
*1183 FILLER_0_16_726
*1184 FILLER_0_16_728
*1185 FILLER_0_16_740
*1186 FILLER_0_16_752
*1187 FILLER_0_16_764
*1188 FILLER_0_16_776
*1189 FILLER_0_16_782
*1190 FILLER_0_16_784
*1191 FILLER_0_16_796
*1192 FILLER_0_16_800
*1193 FILLER_0_17_702
*1194 FILLER_0_17_714
*1195 FILLER_0_17_726
*1196 FILLER_0_17_738
*1197 FILLER_0_17_750
*1198 FILLER_0_17_754
*1199 FILLER_0_17_756
*1200 FILLER_0_17_768
*1201 FILLER_0_17_780
*1202 FILLER_0_17_792
*1203 FILLER_0_17_800
*1204 FILLER_0_18_702
*1205 FILLER_0_18_714
*1206 FILLER_0_18_726
*1207 FILLER_0_18_728
*1208 FILLER_0_18_740
*1209 FILLER_0_18_752
*1210 FILLER_0_18_764
*1211 FILLER_0_18_776
*1212 FILLER_0_18_782
*1213 FILLER_0_18_784
*1214 FILLER_0_18_796
*1215 FILLER_0_18_800
*1216 FILLER_0_19_702
*1217 FILLER_0_19_714
*1218 FILLER_0_19_726
*1219 FILLER_0_19_738
*1220 FILLER_0_19_750
*1221 FILLER_0_19_754
*1222 FILLER_0_19_756
*1223 FILLER_0_19_768
*1224 FILLER_0_19_780
*1225 FILLER_0_19_792
*1226 FILLER_0_19_800
*1227 FILLER_0_1_105
*1228 FILLER_0_1_111
*1229 FILLER_0_1_113
*1230 FILLER_0_1_125
*1231 FILLER_0_1_137
*1232 FILLER_0_1_149
*1233 FILLER_0_1_15
*1234 FILLER_0_1_161
*1235 FILLER_0_1_169
*1236 FILLER_0_1_223
*1237 FILLER_0_1_225
*1238 FILLER_0_1_27
*1239 FILLER_0_1_271
*1240 FILLER_0_1_297
*1241 FILLER_0_1_3
*1242 FILLER_0_1_337
*1243 FILLER_0_1_341
*1244 FILLER_0_1_39
*1245 FILLER_0_1_390
*1246 FILLER_0_1_393
*1247 FILLER_0_1_410
*1248 FILLER_0_1_430
*1249 FILLER_0_1_434
*1250 FILLER_0_1_447
*1251 FILLER_0_1_449
*1252 FILLER_0_1_454
*1253 FILLER_0_1_503
*1254 FILLER_0_1_505
*1255 FILLER_0_1_509
*1256 FILLER_0_1_51
*1257 FILLER_0_1_540
*1258 FILLER_0_1_544
*1259 FILLER_0_1_55
*1260 FILLER_0_1_559
*1261 FILLER_0_1_561
*1262 FILLER_0_1_57
*1263 FILLER_0_1_588
*1264 FILLER_0_1_631
*1265 FILLER_0_1_670
*1266 FILLER_0_1_681
*1267 FILLER_0_1_69
*1268 FILLER_0_1_737
*1269 FILLER_0_1_774
*1270 FILLER_0_1_783
*1271 FILLER_0_1_793
*1272 FILLER_0_1_81
*1273 FILLER_0_1_93
*1274 FILLER_0_20_702
*1275 FILLER_0_20_714
*1276 FILLER_0_20_726
*1277 FILLER_0_20_728
*1278 FILLER_0_20_740
*1279 FILLER_0_20_752
*1280 FILLER_0_20_764
*1281 FILLER_0_20_776
*1282 FILLER_0_20_782
*1283 FILLER_0_20_784
*1284 FILLER_0_20_796
*1285 FILLER_0_20_800
*1286 FILLER_0_21_702
*1287 FILLER_0_21_714
*1288 FILLER_0_21_726
*1289 FILLER_0_21_738
*1290 FILLER_0_21_750
*1291 FILLER_0_21_754
*1292 FILLER_0_21_756
*1293 FILLER_0_21_768
*1294 FILLER_0_21_780
*1295 FILLER_0_21_792
*1296 FILLER_0_21_800
*1297 FILLER_0_22_702
*1298 FILLER_0_22_714
*1299 FILLER_0_22_726
*1300 FILLER_0_22_728
*1301 FILLER_0_22_740
*1302 FILLER_0_22_752
*1303 FILLER_0_22_764
*1304 FILLER_0_22_776
*1305 FILLER_0_22_782
*1306 FILLER_0_22_784
*1307 FILLER_0_22_796
*1308 FILLER_0_22_800
*1309 FILLER_0_23_702
*1310 FILLER_0_23_714
*1311 FILLER_0_23_726
*1312 FILLER_0_23_738
*1313 FILLER_0_23_750
*1314 FILLER_0_23_754
*1315 FILLER_0_23_756
*1316 FILLER_0_23_768
*1317 FILLER_0_23_780
*1318 FILLER_0_23_792
*1319 FILLER_0_23_800
*1320 FILLER_0_24_702
*1321 FILLER_0_24_714
*1322 FILLER_0_24_726
*1323 FILLER_0_24_728
*1324 FILLER_0_24_740
*1325 FILLER_0_24_752
*1326 FILLER_0_24_764
*1327 FILLER_0_24_776
*1328 FILLER_0_24_782
*1329 FILLER_0_24_784
*1330 FILLER_0_24_796
*1331 FILLER_0_24_800
*1332 FILLER_0_25_702
*1333 FILLER_0_25_714
*1334 FILLER_0_25_726
*1335 FILLER_0_25_738
*1336 FILLER_0_25_750
*1337 FILLER_0_25_754
*1338 FILLER_0_25_756
*1339 FILLER_0_25_768
*1340 FILLER_0_25_780
*1341 FILLER_0_25_792
*1342 FILLER_0_25_800
*1343 FILLER_0_26_702
*1344 FILLER_0_26_714
*1345 FILLER_0_26_726
*1346 FILLER_0_26_728
*1347 FILLER_0_26_740
*1348 FILLER_0_26_752
*1349 FILLER_0_26_764
*1350 FILLER_0_26_776
*1351 FILLER_0_26_782
*1352 FILLER_0_26_784
*1353 FILLER_0_26_796
*1354 FILLER_0_26_800
*1355 FILLER_0_27_702
*1356 FILLER_0_27_714
*1357 FILLER_0_27_726
*1358 FILLER_0_27_738
*1359 FILLER_0_27_750
*1360 FILLER_0_27_754
*1361 FILLER_0_27_756
*1362 FILLER_0_27_768
*1363 FILLER_0_27_780
*1364 FILLER_0_27_792
*1365 FILLER_0_27_800
*1366 FILLER_0_28_702
*1367 FILLER_0_28_714
*1368 FILLER_0_28_726
*1369 FILLER_0_28_728
*1370 FILLER_0_28_740
*1371 FILLER_0_28_752
*1372 FILLER_0_28_764
*1373 FILLER_0_28_776
*1374 FILLER_0_28_782
*1375 FILLER_0_28_784
*1376 FILLER_0_28_796
*1377 FILLER_0_28_800
*1378 FILLER_0_29_702
*1379 FILLER_0_29_714
*1380 FILLER_0_29_726
*1381 FILLER_0_29_738
*1382 FILLER_0_29_750
*1383 FILLER_0_29_754
*1384 FILLER_0_29_756
*1385 FILLER_0_29_768
*1386 FILLER_0_29_780
*1387 FILLER_0_29_792
*1388 FILLER_0_29_800
*1389 FILLER_0_2_109
*1390 FILLER_0_2_121
*1391 FILLER_0_2_133
*1392 FILLER_0_2_139
*1393 FILLER_0_2_141
*1394 FILLER_0_2_15
*1395 FILLER_0_2_153
*1396 FILLER_0_2_165
*1397 FILLER_0_2_173
*1398 FILLER_0_2_197
*1399 FILLER_0_2_253
*1400 FILLER_0_2_27
*1401 FILLER_0_2_29
*1402 FILLER_0_2_296
*1403 FILLER_0_2_3
*1404 FILLER_0_2_317
*1405 FILLER_0_2_350
*1406 FILLER_0_2_362
*1407 FILLER_0_2_365
*1408 FILLER_0_2_388
*1409 FILLER_0_2_400
*1410 FILLER_0_2_41
*1411 FILLER_0_2_412
*1412 FILLER_0_2_421
*1413 FILLER_0_2_433
*1414 FILLER_0_2_445
*1415 FILLER_0_2_449
*1416 FILLER_0_2_458
*1417 FILLER_0_2_485
*1418 FILLER_0_2_489
*1419 FILLER_0_2_512
*1420 FILLER_0_2_520
*1421 FILLER_0_2_53
*1422 FILLER_0_2_530
*1423 FILLER_0_2_533
*1424 FILLER_0_2_545
*1425 FILLER_0_2_557
*1426 FILLER_0_2_565
*1427 FILLER_0_2_576
*1428 FILLER_0_2_585
*1429 FILLER_0_2_601
*1430 FILLER_0_2_609
*1431 FILLER_0_2_620
*1432 FILLER_0_2_632
*1433 FILLER_0_2_645
*1434 FILLER_0_2_65
*1435 FILLER_0_2_654
*1436 FILLER_0_2_680
*1437 FILLER_0_2_692
*1438 FILLER_0_2_701
*1439 FILLER_0_2_710
*1440 FILLER_0_2_718
*1441 FILLER_0_2_726
*1442 FILLER_0_2_738
*1443 FILLER_0_2_750
*1444 FILLER_0_2_765
*1445 FILLER_0_2_77
*1446 FILLER_0_2_777
*1447 FILLER_0_2_789
*1448 FILLER_0_2_83
*1449 FILLER_0_2_85
*1450 FILLER_0_2_97
*1451 FILLER_0_30_702
*1452 FILLER_0_30_714
*1453 FILLER_0_30_726
*1454 FILLER_0_30_728
*1455 FILLER_0_30_740
*1456 FILLER_0_30_752
*1457 FILLER_0_30_764
*1458 FILLER_0_30_776
*1459 FILLER_0_30_782
*1460 FILLER_0_30_784
*1461 FILLER_0_30_796
*1462 FILLER_0_30_800
*1463 FILLER_0_31_702
*1464 FILLER_0_31_714
*1465 FILLER_0_31_726
*1466 FILLER_0_31_738
*1467 FILLER_0_31_750
*1468 FILLER_0_31_754
*1469 FILLER_0_31_756
*1470 FILLER_0_31_768
*1471 FILLER_0_31_780
*1472 FILLER_0_31_792
*1473 FILLER_0_31_800
*1474 FILLER_0_32_702
*1475 FILLER_0_32_714
*1476 FILLER_0_32_726
*1477 FILLER_0_32_728
*1478 FILLER_0_32_740
*1479 FILLER_0_32_752
*1480 FILLER_0_32_764
*1481 FILLER_0_32_776
*1482 FILLER_0_32_782
*1483 FILLER_0_32_784
*1484 FILLER_0_32_796
*1485 FILLER_0_32_800
*1486 FILLER_0_33_702
*1487 FILLER_0_33_714
*1488 FILLER_0_33_726
*1489 FILLER_0_33_738
*1490 FILLER_0_33_750
*1491 FILLER_0_33_754
*1492 FILLER_0_33_756
*1493 FILLER_0_33_768
*1494 FILLER_0_33_780
*1495 FILLER_0_33_792
*1496 FILLER_0_33_800
*1497 FILLER_0_34_702