*SPEF "ieee 1481-1999"
*DESIGN "wishbone_sram"
*DATE "07:59:03 Thursday May 09, 2024"
*VENDOR "The OpenROAD Project"
*PROGRAM "OpenROAD"
*VERSION "da0053d7b0014ab9c87ea148875ff6c2a0f9b658"
*DESIGN_FLOW "NAME_SCOPE LOCAL" "PIN_CAP NONE"
*DIVIDER /
*DELIMITER :
*BUS_DELIMITER []
*T_UNIT 1 NS
*C_UNIT 1 PF
*R_UNIT 1 OHM
*L_UNIT 1 HENRY

*NAME_MAP
*1 sram_selected
*4 wb_clk_i
*5 wb_rst_i
*6 wbs_ack_o
*7 wbs_adr_i[0]
*8 wbs_adr_i[10]
*9 wbs_adr_i[11]
*10 wbs_adr_i[12]
*11 wbs_adr_i[13]
*12 wbs_adr_i[14]
*13 wbs_adr_i[15]
*14 wbs_adr_i[16]
*15 wbs_adr_i[17]
*16 wbs_adr_i[18]
*17 wbs_adr_i[19]
*18 wbs_adr_i[1]
*19 wbs_adr_i[20]
*20 wbs_adr_i[21]
*21 wbs_adr_i[22]
*22 wbs_adr_i[23]
*23 wbs_adr_i[24]
*24 wbs_adr_i[25]
*25 wbs_adr_i[26]
*26 wbs_adr_i[27]
*27 wbs_adr_i[28]
*28 wbs_adr_i[29]
*29 wbs_adr_i[2]
*30 wbs_adr_i[30]
*31 wbs_adr_i[31]
*32 wbs_adr_i[3]
*33 wbs_adr_i[4]
*34 wbs_adr_i[5]
*35 wbs_adr_i[6]
*36 wbs_adr_i[7]
*37 wbs_adr_i[8]
*38 wbs_adr_i[9]
*39 wbs_cyc_i
*40 wbs_dat_i[0]
*41 wbs_dat_i[10]
*42 wbs_dat_i[11]
*43 wbs_dat_i[12]
*44 wbs_dat_i[13]
*45 wbs_dat_i[14]
*46 wbs_dat_i[15]
*47 wbs_dat_i[16]
*48 wbs_dat_i[17]
*49 wbs_dat_i[18]
*50 wbs_dat_i[19]
*51 wbs_dat_i[1]
*52 wbs_dat_i[20]
*53 wbs_dat_i[21]
*54 wbs_dat_i[22]
*55 wbs_dat_i[23]
*56 wbs_dat_i[24]
*57 wbs_dat_i[25]
*58 wbs_dat_i[26]
*59 wbs_dat_i[27]
*60 wbs_dat_i[28]
*61 wbs_dat_i[29]
*62 wbs_dat_i[2]
*63 wbs_dat_i[30]
*64 wbs_dat_i[31]
*65 wbs_dat_i[3]
*66 wbs_dat_i[4]
*67 wbs_dat_i[5]
*68 wbs_dat_i[6]
*69 wbs_dat_i[7]
*70 wbs_dat_i[8]
*71 wbs_dat_i[9]
*72 wbs_dat_o[0]
*73 wbs_dat_o[10]
*74 wbs_dat_o[11]
*75 wbs_dat_o[12]
*76 wbs_dat_o[13]
*77 wbs_dat_o[14]
*78 wbs_dat_o[15]
*79 wbs_dat_o[16]
*80 wbs_dat_o[17]
*81 wbs_dat_o[18]
*82 wbs_dat_o[19]
*83 wbs_dat_o[1]
*84 wbs_dat_o[20]
*85 wbs_dat_o[21]
*86 wbs_dat_o[22]
*87 wbs_dat_o[23]
*88 wbs_dat_o[24]
*89 wbs_dat_o[25]
*90 wbs_dat_o[26]
*91 wbs_dat_o[27]
*92 wbs_dat_o[28]
*93 wbs_dat_o[29]
*94 wbs_dat_o[2]
*95 wbs_dat_o[30]
*96 wbs_dat_o[31]
*97 wbs_dat_o[3]
*98 wbs_dat_o[4]
*99 wbs_dat_o[5]
*100 wbs_dat_o[6]
*101 wbs_dat_o[7]
*102 wbs_dat_o[8]
*103 wbs_dat_o[9]
*104 wbs_sel_i[0]
*105 wbs_sel_i[1]
*106 wbs_sel_i[2]
*107 wbs_sel_i[3]
*108 wbs_stb_i
*109 wbs_we_i
*116 _000_
*117 _001_
*118 _002_
*119 _003_
*120 _004_
*121 _005_
*122 _006_
*123 _007_
*124 _008_
*125 _009_
*126 _010_
*127 _011_
*128 _012_
*129 _013_
*130 _014_
*131 _015_
*132 _016_
*133 _017_
*134 _018_
*135 _019_
*136 _020_
*137 _021_
*138 _022_
*139 _023_
*140 _024_
*141 _025_
*142 _026_
*143 _027_
*144 _028_
*145 _029_
*146 _030_
*147 _031_
*148 _032_
*149 _033_
*150 _034_
*151 _035_
*152 _036_
*153 _037_
*154 _038_
*155 _039_
*156 clknet_0_wb_clk_i
*157 clknet_1_0__leaf_wb_clk_i
*158 clknet_1_1__leaf_wb_clk_i
*159 net1
*160 net10
*161 net100
*162 net101
*163 net102
*164 net103
*165 net104
*166 net105
*167 net106
*168 net107
*169 net108
*170 net109
*171 net11
*172 net110
*173 net111
*174 net112
*175 net113
*176 net114
*177 net115
*178 net116
*179 net117
*180 net118
*181 net119
*182 net12
*183 net120
*184 net121
*185 net122
*186 net123
*187 net124
*188 net125
*189 net126
*190 net127
*191 net128
*192 net129
*193 net13
*194 net130
*195 net131
*196 net132
*197 net133
*198 net134
*199 net135
*200 net136
*201 net137
*202 net138
*203 net139
*204 net14
*205 net140
*206 net141
*207 net142
*208 net143
*209 net144
*210 net145
*211 net146
*212 net147
*213 net148
*214 net149
*215 net15
*216 net150
*217 net151
*218 net152
*219 net153
*220 net154
*221 net155
*222 net156
*223 net157
*224 net158
*225 net159
*226 net16
*227 net160
*228 net161
*229 net162
*230 net163
*231 net164
*232 net165
*233 net166
*234 net167
*235 net168
*236 net169
*237 net17
*238 net170
*239 net171
*240 net172
*241 net173
*242 net174
*243 net175
*244 net176
*245 net177
*246 net178
*247 net179
*248 net18
*249 net180
*250 net181
*251 net182
*252 net183
*253 net184
*254 net185
*255 net186
*256 net187
*257 net188
*258 net189
*259 net19
*260 net190
*261 net191
*262 net192
*263 net193
*264 net194
*265 net195
*266 net196
*267 net197
*268 net198
*269 net199
*270 net2
*271 net20
*272 net200
*273 net201
*274 net202
*275 net203
*276 net204
*277 net205
*278 net206
*279 net207
*280 net208
*281 net209
*282 net21
*283 net210
*284 net211
*285 net212
*286 net213
*287 net214
*288 net215
*289 net216
*290 net217
*291 net218
*292 net219
*293 net22
*294 net220
*295 net221
*296 net222
*297 net223
*298 net224
*299 net225
*300 net226
*301 net227
*302 net228
*303 net229
*304 net23
*305 net230
*306 net231
*307 net232
*308 net233
*309 net234
*310 net235
*311 net236
*312 net237
*313 net238
*314 net24
*315 net25
*316 net26
*317 net27
*318 net28
*319 net29
*320 net3
*321 net30
*322 net31
*323 net32
*324 net33
*325 net34
*326 net35
*327 net36
*328 net37
*329 net38
*330 net39
*331 net4
*332 net40
*333 net41
*334 net42
*335 net43
*336 net44
*337 net45
*338 net46
*339 net47
*340 net48
*341 net49
*342 net5
*343 net50
*344 net51
*345 net52
*346 net53
*347 net54
*348 net55
*349 net56
*350 net57
*351 net58
*352 net59
*353 net6
*354 net60
*355 net61
*356 net62
*357 net63
*358 net64
*359 net65
*360 net66
*361 net67
*362 net68
*363 net69
*364 net7
*365 net70
*366 net71
*367 net72
*368 net73
*369 net74
*370 net75
*371 net76
*372 net77
*373 net78
*374 net79
*375 net8
*376 net80
*377 net81
*378 net82
*379 net83
*380 net84
*381 net85
*382 net86
*383 net87
*384 net88
*385 net89
*386 net9
*387 net90
*388 net91
*389 net92
*390 net93
*391 net94
*392 net95
*393 net96
*394 net97
*395 net98
*396 net99
*397 ram_controller\.DO\[0\]
*398 ram_controller\.DO\[10\]
*399 ram_controller\.DO\[11\]
*400 ram_controller\.DO\[12\]
*401 ram_controller\.DO\[13\]
*402 ram_controller\.DO\[14\]
*403 ram_controller\.DO\[15\]
*404 ram_controller\.DO\[16\]
*405 ram_controller\.DO\[17\]
*406 ram_controller\.DO\[18\]
*407 ram_controller\.DO\[19\]
*408 ram_controller\.DO\[1\]
*409 ram_controller\.DO\[20\]
*410 ram_controller\.DO\[21\]
*411 ram_controller\.DO\[22\]
*412 ram_controller\.DO\[23\]
*413 ram_controller\.DO\[24\]
*414 ram_controller\.DO\[25\]
*415 ram_controller\.DO\[26\]
*416 ram_controller\.DO\[27\]
*417 ram_controller\.DO\[28\]
*418 ram_controller\.DO\[29\]
*419 ram_controller\.DO\[2\]
*420 ram_controller\.DO\[30\]
*421 ram_controller\.DO\[31\]
*422 ram_controller\.DO\[3\]
*423 ram_controller\.DO\[4\]
*424 ram_controller\.DO\[5\]
*425 ram_controller\.DO\[6\]
*426 ram_controller\.DO\[7\]
*427 ram_controller\.DO\[8\]
*428 ram_controller\.DO\[9\]
*429 ram_controller\.EN
*430 ram_controller\.R_WB
*431 ram_controller\.wbs_ack_o
*432 FILLER_0_0_109
*433 FILLER_0_0_113
*434 FILLER_0_0_125
*435 FILLER_0_0_137
*436 FILLER_0_0_141
*437 FILLER_0_0_15
*438 FILLER_0_0_153
*439 FILLER_0_0_159
*440 FILLER_0_0_195
*441 FILLER_0_0_197
*442 FILLER_0_0_220
*443 FILLER_0_0_225
*444 FILLER_0_0_253
*445 FILLER_0_0_27
*446 FILLER_0_0_281
*447 FILLER_0_0_3
*448 FILLER_0_0_337
*449 FILLER_0_0_365
*450 FILLER_0_0_393
*451 FILLER_0_0_418
*452 FILLER_0_0_445
*453 FILLER_0_0_45
*454 FILLER_0_0_529
*455 FILLER_0_0_53
*456 FILLER_0_0_557
*457 FILLER_0_0_57
*458 FILLER_0_0_585
*459 FILLER_0_0_613
*460 FILLER_0_0_617
*461 FILLER_0_0_642
*462 FILLER_0_0_669
*463 FILLER_0_0_69
*464 FILLER_0_0_697
*465 FILLER_0_0_707
*466 FILLER_0_0_724
*467 FILLER_0_0_753
*468 FILLER_0_0_757
*469 FILLER_0_0_761
*470 FILLER_0_0_81
*471 FILLER_0_0_85
*472 FILLER_0_0_97
*473 FILLER_0_100_702
*474 FILLER_0_100_714
*475 FILLER_0_100_726
*476 FILLER_0_100_728
*477 FILLER_0_100_740
*478 FILLER_0_100_752
*479 FILLER_0_100_764
*480 FILLER_0_100_776
*481 FILLER_0_100_782
*482 FILLER_0_100_784
*483 FILLER_0_100_796
*484 FILLER_0_100_800
*485 FILLER_0_101_702
*486 FILLER_0_101_714
*487 FILLER_0_101_726
*488 FILLER_0_101_738
*489 FILLER_0_101_750
*490 FILLER_0_101_754
*491 FILLER_0_101_756
*492 FILLER_0_101_768
*493 FILLER_0_101_780
*494 FILLER_0_101_792
*495 FILLER_0_101_800
*496 FILLER_0_102_702
*497 FILLER_0_102_714
*498 FILLER_0_102_726
*499 FILLER_0_102_728
*500 FILLER_0_102_740
*501 FILLER_0_102_752
*502 FILLER_0_102_764
*503 FILLER_0_102_776
*504 FILLER_0_102_782
*505 FILLER_0_102_784
*506 FILLER_0_102_796
*507 FILLER_0_102_800
*508 FILLER_0_103_702
*509 FILLER_0_103_714
*510 FILLER_0_103_726
*511 FILLER_0_103_738
*512 FILLER_0_103_750
*513 FILLER_0_103_754
*514 FILLER_0_103_756
*515 FILLER_0_103_768
*516 FILLER_0_103_780
*517 FILLER_0_103_792
*518 FILLER_0_103_800
*519 FILLER_0_104_702
*520 FILLER_0_104_714
*521 FILLER_0_104_726
*522 FILLER_0_104_728
*523 FILLER_0_104_740
*524 FILLER_0_104_752
*525 FILLER_0_104_764
*526 FILLER_0_104_776
*527 FILLER_0_104_782
*528 FILLER_0_104_784
*529 FILLER_0_104_796
*530 FILLER_0_104_800
*531 FILLER_0_105_702
*532 FILLER_0_105_714
*533 FILLER_0_105_726
*534 FILLER_0_105_738
*535 FILLER_0_105_750
*536 FILLER_0_105_754
*537 FILLER_0_105_756
*538 FILLER_0_105_768
*539 FILLER_0_105_780
*540 FILLER_0_105_792
*541 FILLER_0_105_800
*542 FILLER_0_106_702
*543 FILLER_0_106_714
*544 FILLER_0_106_726
*545 FILLER_0_106_728
*546 FILLER_0_106_740
*547 FILLER_0_106_752
*548 FILLER_0_106_764
*549 FILLER_0_106_776
*550 FILLER_0_106_782
*551 FILLER_0_106_784
*552 FILLER_0_106_796
*553 FILLER_0_106_800
*554 FILLER_0_107_702
*555 FILLER_0_107_714
*556 FILLER_0_107_726
*557 FILLER_0_107_738
*558 FILLER_0_107_750
*559 FILLER_0_107_754
*560 FILLER_0_107_756
*561 FILLER_0_107_768
*562 FILLER_0_107_780
*563 FILLER_0_107_792
*564 FILLER_0_107_800
*565 FILLER_0_108_702
*566 FILLER_0_108_714
*567 FILLER_0_108_726
*568 FILLER_0_108_728
*569 FILLER_0_108_740
*570 FILLER_0_108_752
*571 FILLER_0_108_764
*572 FILLER_0_108_776
*573 FILLER_0_108_782
*574 FILLER_0_108_784
*575 FILLER_0_108_796
*576 FILLER_0_108_800
*577 FILLER_0_109_702
*578 FILLER_0_109_714
*579 FILLER_0_109_726
*580 FILLER_0_109_738
*581 FILLER_0_109_750
*582 FILLER_0_109_754
*583 FILLER_0_109_756
*584 FILLER_0_109_768
*585 FILLER_0_109_780
*586 FILLER_0_109_792
*587 FILLER_0_109_800
*588 FILLER_0_10_702
*589 FILLER_0_10_714
*590 FILLER_0_10_726
*591 FILLER_0_10_728
*592 FILLER_0_10_740
*593 FILLER_0_10_752
*594 FILLER_0_10_764
*595 FILLER_0_10_776
*596 FILLER_0_10_782
*597 FILLER_0_10_784
*598 FILLER_0_10_796
*599 FILLER_0_10_800
*600 FILLER_0_110_702
*601 FILLER_0_110_714
*602 FILLER_0_110_726
*603 FILLER_0_110_728
*604 FILLER_0_110_740
*605 FILLER_0_110_752
*606 FILLER_0_110_764
*607 FILLER_0_110_776
*608 FILLER_0_110_782
*609 FILLER_0_110_784
*610 FILLER_0_110_796
*611 FILLER_0_110_800
*612 FILLER_0_111_702
*613 FILLER_0_111_714
*614 FILLER_0_111_726
*615 FILLER_0_111_738
*616 FILLER_0_111_750
*617 FILLER_0_111_754
*618 FILLER_0_111_756
*619 FILLER_0_111_768
*620 FILLER_0_111_780
*621 FILLER_0_111_792
*622 FILLER_0_111_800
*623 FILLER_0_112_702
*624 FILLER_0_112_714
*625 FILLER_0_112_726
*626 FILLER_0_112_728
*627 FILLER_0_112_740
*628 FILLER_0_112_752
*629 FILLER_0_112_764
*630 FILLER_0_112_776
*631 FILLER_0_112_782
*632 FILLER_0_112_784
*633 FILLER_0_112_796
*634 FILLER_0_112_800
*635 FILLER_0_113_702
*636 FILLER_0_113_714
*637 FILLER_0_113_726
*638 FILLER_0_113_738
*639 FILLER_0_113_750
*640 FILLER_0_113_754
*641 FILLER_0_113_756
*642 FILLER_0_113_768
*643 FILLER_0_113_780
*644 FILLER_0_113_792
*645 FILLER_0_113_800
*646 FILLER_0_114_702
*647 FILLER_0_114_714
*648 FILLER_0_114_726
*649 FILLER_0_114_728
*650 FILLER_0_114_740
*651 FILLER_0_114_752
*652 FILLER_0_114_764
*653 FILLER_0_114_776
*654 FILLER_0_114_782
*655 FILLER_0_114_784
*656 FILLER_0_114_796
*657 FILLER_0_114_800
*658 FILLER_0_115_702
*659 FILLER_0_115_714
*660 FILLER_0_115_726
*661 FILLER_0_115_738
*662 FILLER_0_115_750
*663 FILLER_0_115_754
*664 FILLER_0_115_756
*665 FILLER_0_115_768
*666 FILLER_0_115_780
*667 FILLER_0_115_792
*668 FILLER_0_115_800
*669 FILLER_0_116_702
*670 FILLER_0_116_714
*671 FILLER_0_116_726
*672 FILLER_0_116_728
*673 FILLER_0_116_740
*674 FILLER_0_116_752
*675 FILLER_0_116_764
*676 FILLER_0_116_776
*677 FILLER_0_116_782
*678 FILLER_0_116_784
*679 FILLER_0_116_796
*680 FILLER_0_116_800
*681 FILLER_0_117_702
*682 FILLER_0_117_714
*683 FILLER_0_117_726
*684 FILLER_0_117_738
*685 FILLER_0_117_750
*686 FILLER_0_117_754
*687 FILLER_0_117_756
*688 FILLER_0_117_768
*689 FILLER_0_117_780
*690 FILLER_0_117_792
*691 FILLER_0_117_800
*692 FILLER_0_118_702
*693 FILLER_0_118_714
*694 FILLER_0_118_726
*695 FILLER_0_118_728
*696 FILLER_0_118_740
*697 FILLER_0_118_752
*698 FILLER_0_118_764
*699 FILLER_0_118_776
*700 FILLER_0_118_782
*701 FILLER_0_118_784
*702 FILLER_0_118_796
*703 FILLER_0_118_800
*704 FILLER_0_119_702
*705 FILLER_0_119_714
*706 FILLER_0_119_726
*707 FILLER_0_119_738
*708 FILLER_0_119_750
*709 FILLER_0_119_754
*710 FILLER_0_119_756
*711 FILLER_0_119_768
*712 FILLER_0_119_780
*713 FILLER_0_119_792
*714 FILLER_0_119_800
*715 FILLER_0_11_702
*716 FILLER_0_11_714
*717 FILLER_0_11_726
*718 FILLER_0_11_738
*719 FILLER_0_11_750
*720 FILLER_0_11_754
*721 FILLER_0_11_756
*722 FILLER_0_11_768
*723 FILLER_0_11_780
*724 FILLER_0_11_792
*725 FILLER_0_11_800
*726 FILLER_0_120_702
*727 FILLER_0_120_714
*728 FILLER_0_120_726
*729 FILLER_0_120_728
*730 FILLER_0_120_740
*731 FILLER_0_120_752
*732 FILLER_0_120_764
*733 FILLER_0_120_776
*734 FILLER_0_120_782
*735 FILLER_0_120_784
*736 FILLER_0_120_796
*737 FILLER_0_120_800
*738 FILLER_0_121_702
*739 FILLER_0_121_714
*740 FILLER_0_121_726
*741 FILLER_0_121_738
*742 FILLER_0_121_750
*743 FILLER_0_121_754
*744 FILLER_0_121_756
*745 FILLER_0_121_768
*746 FILLER_0_121_780
*747 FILLER_0_121_792
*748 FILLER_0_121_800
*749 FILLER_0_122_702
*750 FILLER_0_122_714
*751 FILLER_0_122_726
*752 FILLER_0_122_728
*753 FILLER_0_122_740
*754 FILLER_0_122_752
*755 FILLER_0_122_764
*756 FILLER_0_122_776
*757 FILLER_0_122_782
*758 FILLER_0_122_784
*759 FILLER_0_122_796
*760 FILLER_0_122_800
*761 FILLER_0_123_702
*762 FILLER_0_123_714
*763 FILLER_0_123_726
*764 FILLER_0_123_738
*765 FILLER_0_123_750
*766 FILLER_0_123_754
*767 FILLER_0_123_756
*768 FILLER_0_123_768
*769 FILLER_0_123_780
*770 FILLER_0_123_792
*771 FILLER_0_123_800
*772 FILLER_0_124_702
*773 FILLER_0_124_714
*774 FILLER_0_124_726
*775 FILLER_0_124_728
*776 FILLER_0_124_740
*777 FILLER_0_124_752
*778 FILLER_0_124_764
*779 FILLER_0_124_776
*780 FILLER_0_124_782
*781 FILLER_0_124_784
*782 FILLER_0_124_796
*783 FILLER_0_124_800
*784 FILLER_0_125_702
*785 FILLER_0_125_714
*786 FILLER_0_125_726
*787 FILLER_0_125_738
*788 FILLER_0_125_750
*789 FILLER_0_125_754
*790 FILLER_0_125_756
*791 FILLER_0_125_768
*792 FILLER_0_125_780
*793 FILLER_0_125_792
*794 FILLER_0_125_800
*795 FILLER_0_126_702
*796 FILLER_0_126_714
*797 FILLER_0_126_726
*798 FILLER_0_126_728
*799 FILLER_0_126_740
*800 FILLER_0_126_752
*801 FILLER_0_126_764
*802 FILLER_0_126_776
*803 FILLER_0_126_782
*804 FILLER_0_126_784
*805 FILLER_0_126_796
*806 FILLER_0_126_800
*807 FILLER_0_127_702
*808 FILLER_0_127_714
*809 FILLER_0_127_726
*810 FILLER_0_127_738
*811 FILLER_0_127_750
*812 FILLER_0_127_754
*813 FILLER_0_127_756
*814 FILLER_0_127_768
*815 FILLER_0_127_780
*816 FILLER_0_127_792
*817 FILLER_0_127_800
*818 FILLER_0_128_702
*819 FILLER_0_128_714
*820 FILLER_0_128_726
*821 FILLER_0_128_728
*822 FILLER_0_128_740
*823 FILLER_0_128_752
*824 FILLER_0_128_764
*825 FILLER_0_128_776
*826 FILLER_0_128_782
*827 FILLER_0_128_784
*828 FILLER_0_128_796
*829 FILLER_0_128_800
*830 FILLER_0_129_702
*831 FILLER_0_129_714
*832 FILLER_0_129_726
*833 FILLER_0_129_738
*834 FILLER_0_129_750
*835 FILLER_0_129_754
*836 FILLER_0_129_756
*837 FILLER_0_129_768
*838 FILLER_0_129_780
*839 FILLER_0_129_792
*840 FILLER_0_129_800
*841 FILLER_0_12_702
*842 FILLER_0_12_714
*843 FILLER_0_12_726
*844 FILLER_0_12_728
*845 FILLER_0_12_740
*846 FILLER_0_12_752
*847 FILLER_0_12_764
*848 FILLER_0_12_776
*849 FILLER_0_12_782
*850 FILLER_0_12_784
*851 FILLER_0_12_796
*852 FILLER_0_12_800
*853 FILLER_0_130_702
*854 FILLER_0_130_714
*855 FILLER_0_130_726
*856 FILLER_0_130_728
*857 FILLER_0_130_740
*858 FILLER_0_130_752
*859 FILLER_0_130_764
*860 FILLER_0_130_776
*861 FILLER_0_130_782
*862 FILLER_0_130_784
*863 FILLER_0_130_796
*864 FILLER_0_130_800
*865 FILLER_0_131_702
*866 FILLER_0_131_714
*867 FILLER_0_131_726
*868 FILLER_0_131_738
*869 FILLER_0_131_750
*870 FILLER_0_131_754
*871 FILLER_0_131_756
*872 FILLER_0_131_768
*873 FILLER_0_131_780
*874 FILLER_0_131_792
*875 FILLER_0_131_800
*876 FILLER_0_132_702
*877 FILLER_0_132_714
*878 FILLER_0_132_726
*879 FILLER_0_132_728
*880 FILLER_0_132_740
*881 FILLER_0_132_752
*882 FILLER_0_132_764
*883 FILLER_0_132_776
*884 FILLER_0_132_782
*885 FILLER_0_132_784
*886 FILLER_0_132_796
*887 FILLER_0_132_800
*888 FILLER_0_133_702
*889 FILLER_0_133_714
*890 FILLER_0_133_726
*891 FILLER_0_133_738
*892 FILLER_0_133_750
*893 FILLER_0_133_754
*894 FILLER_0_133_756
*895 FILLER_0_133_768
*896 FILLER_0_133_780
*897 FILLER_0_133_792
*898 FILLER_0_133_800
*899 FILLER_0_134_702
*900 FILLER_0_134_714
*901 FILLER_0_134_726
*902 FILLER_0_134_728
*903 FILLER_0_134_740
*904 FILLER_0_134_752
*905 FILLER_0_134_764
*906 FILLER_0_134_776
*907 FILLER_0_134_782
*908 FILLER_0_134_784
*909 FILLER_0_134_796
*910 FILLER_0_134_800
*911 FILLER_0_135_702
*912 FILLER_0_135_714
*913 FILLER_0_135_726
*914 FILLER_0_135_738
*915 FILLER_0_135_750
*916 FILLER_0_135_754
*917 FILLER_0_135_756
*918 FILLER_0_135_768
*919 FILLER_0_135_780
*920 FILLER_0_135_792
*921 FILLER_0_135_800
*922 FILLER_0_136_702
*923 FILLER_0_136_714
*924 FILLER_0_136_726
*925 FILLER_0_136_728
*926 FILLER_0_136_740
*927 FILLER_0_136_752
*928 FILLER_0_136_764
*929 FILLER_0_136_776
*930 FILLER_0_136_782
*931 FILLER_0_136_784
*932 FILLER_0_136_796
*933 FILLER_0_136_800
*934 FILLER_0_137_702
*935 FILLER_0_137_714
*936 FILLER_0_137_726
*937 FILLER_0_137_738
*938 FILLER_0_137_750
*939 FILLER_0_137_754
*940 FILLER_0_137_756
*941 FILLER_0_137_768
*942 FILLER_0_137_780
*943 FILLER_0_137_792
*944 FILLER_0_137_800
*945 FILLER_0_138_702
*946 FILLER_0_138_714
*947 FILLER_0_138_726
*948 FILLER_0_138_728
*949 FILLER_0_138_740
*950 FILLER_0_138_752
*951 FILLER_0_138_764
*952 FILLER_0_138_776
*953 FILLER_0_138_782
*954 FILLER_0_138_784
*955 FILLER_0_138_796
*956 FILLER_0_138_800
*957 FILLER_0_139_702
*958 FILLER_0_139_714
*959 FILLER_0_139_726
*960 FILLER_0_139_738
*961 FILLER_0_139_750
*962 FILLER_0_139_754
*963 FILLER_0_139_756
*964 FILLER_0_139_768
*965 FILLER_0_139_780
*966 FILLER_0_139_792
*967 FILLER_0_139_800
*968 FILLER_0_13_702
*969 FILLER_0_13_714
*970 FILLER_0_13_726
*971 FILLER_0_13_738
*972 FILLER_0_13_750
*973 FILLER_0_13_754
*974 FILLER_0_13_756
*975 FILLER_0_13_768
*976 FILLER_0_13_780
*977 FILLER_0_13_792
*978 FILLER_0_13_800
*979 FILLER_0_140_702
*980 FILLER_0_140_714
*981 FILLER_0_140_726
*982 FILLER_0_140_728
*983 FILLER_0_140_740
*984 FILLER_0_140_752
*985 FILLER_0_140_764
*986 FILLER_0_140_776
*987 FILLER_0_140_782
*988 FILLER_0_140_784
*989 FILLER_0_140_796
*990 FILLER_0_140_800
*991 FILLER_0_141_702
*992 FILLER_0_141_714
*993 FILLER_0_141_726
*994 FILLER_0_141_738
*995 FILLER_0_141_750
*996 FILLER_0_141_754
*997 FILLER_0_141_756
*998 FILLER_0_141_768
*999 FILLER_0_141_780
*1000 FILLER_0_141_792
*1001 FILLER_0_141_800
*1002 FILLER_0_142_702
*1003 FILLER_0_142_714
*1004 FILLER_0_142_726
*1005 FILLER_0_142_728
*1006 FILLER_0_142_740
*1007 FILLER_0_142_752
*1008 FILLER_0_142_764
*1009 FILLER_0_142_776
*1010 FILLER_0_142_782
*1011 FILLER_0_142_784
*1012 FILLER_0_142_796
*1013 FILLER_0_142_800
*1014 FILLER_0_143_702
*1015 FILLER_0_143_714
*1016 FILLER_0_143_726
*1017 FILLER_0_143_738
*1018 FILLER_0_143_750
*1019 FILLER_0_143_754
*1020 FILLER_0_143_756
*1021 FILLER_0_143_768
*1022 FILLER_0_143_780
*1023 FILLER_0_143_792
*1024 FILLER_0_143_800
*1025 FILLER_0_144_702
*1026 FILLER_0_144_714
*1027 FILLER_0_144_726
*1028 FILLER_0_144_728
*1029 FILLER_0_144_740
*1030 FILLER_0_144_752
*1031 FILLER_0_144_764
*1032 FILLER_0_144_776
*1033 FILLER_0_144_782
*1034 FILLER_0_144_784
*1035 FILLER_0_144_796
*1036 FILLER_0_144_800
*1037 FILLER_0_145_702
*1038 FILLER_0_145_714
*1039 FILLER_0_145_726
*1040 FILLER_0_145_738
*1041 FILLER_0_145_750
*1042 FILLER_0_145_754
*1043 FILLER_0_145_756
*1044 FILLER_0_145_768
*1045 FILLER_0_145_780
*1046 FILLER_0_145_792
*1047 FILLER_0_145_800
*1048 FILLER_0_146_702
*1049 FILLER_0_146_714
*1050 FILLER_0_146_726
*1051 FILLER_0_146_728
*1052 FILLER_0_146_740
*1053 FILLER_0_146_752
*1054 FILLER_0_146_764
*1055 FILLER_0_146_776
*1056 FILLER_0_146_782
*1057 FILLER_0_146_784
*1058 FILLER_0_146_796
*1059 FILLER_0_146_800
*1060 FILLER_0_147_702
*1061 FILLER_0_147_714
*1062 FILLER_0_147_726
*1063 FILLER_0_147_738
*1064 FILLER_0_147_750
*1065 FILLER_0_147_754
*1066 FILLER_0_147_756
*1067 FILLER_0_147_768
*1068 FILLER_0_147_780
*1069 FILLER_0_147_792
*1070 FILLER_0_147_800
*1071 FILLER_0_148_702
*1072 FILLER_0_148_714
*1073 FILLER_0_148_726
*1074 FILLER_0_148_728
*1075 FILLER_0_148_740
*1076 FILLER_0_148_752
*1077 FILLER_0_148_764
*1078 FILLER_0_148_776
*1079 FILLER_0_148_782
*1080 FILLER_0_148_784
*1081 FILLER_0_148_796
*1082 FILLER_0_148_800
*1083 FILLER_0_149_702
*1084 FILLER_0_149_714
*1085 FILLER_0_149_726
*1086 FILLER_0_149_738
*1087 FILLER_0_149_750
*1088 FILLER_0_149_754
*1089 FILLER_0_149_756
*1090 FILLER_0_149_768
*1091 FILLER_0_149_780
*1092 FILLER_0_149_792
*1093 FILLER_0_149_800
*1094 FILLER_0_14_702
*1095 FILLER_0_14_714
*1096 FILLER_0_14_726
*1097 FILLER_0_14_728
*1098 FILLER_0_14_740
*1099 FILLER_0_14_752
*1100 FILLER_0_14_764
*1101 FILLER_0_14_776
*1102 FILLER_0_14_782
*1103 FILLER_0_14_784
*1104 FILLER_0_14_796
*1105 FILLER_0_14_800
*1106 FILLER_0_150_702
*1107 FILLER_0_150_714
*1108 FILLER_0_150_726
*1109 FILLER_0_150_728
*1110 FILLER_0_150_740
*1111 FILLER_0_150_752
*1112 FILLER_0_150_764
*1113 FILLER_0_150_776
*1114 FILLER_0_150_782
*1115 FILLER_0_150_784
*1116 FILLER_0_150_796
*1117 FILLER_0_150_800
*1118 FILLER_0_151_702
*1119 FILLER_0_151_714
*1120 FILLER_0_151_726
*1121 FILLER_0_151_738
*1122 FILLER_0_151_750
*1123 FILLER_0_151_754
*1124 FILLER_0_151_756
*1125 FILLER_0_151_768
*1126 FILLER_0_151_780
*1127 FILLER_0_151_792
*1128 FILLER_0_151_800
*1129 FILLER_0_152_702
*1130 FILLER_0_152_714
*1131 FILLER_0_152_726
*1132 FILLER_0_152_728
*1133 FILLER_0_152_740
*1134 FILLER_0_152_752
*1135 FILLER_0_152_764
*1136 FILLER_0_152_776
*1137 FILLER_0_152_782
*1138 FILLER_0_152_784
*1139 FILLER_0_152_796
*1140 FILLER_0_152_800
*1141 FILLER_0_153_702
*1142 FILLER_0_153_714
*1143 FILLER_0_153_726
*1144 FILLER_0_153_738
*1145 FILLER_0_153_750
*1146 FILLER_0_153_754
*1147 FILLER_0_153_756
*1148 FILLER_0_153_768
*1149 FILLER_0_153_780
*1150 FILLER_0_153_792
*1151 FILLER_0_153_800
*1152 FILLER_0_154_702
*1153 FILLER_0_154_714
*1154 FILLER_0_154_726
*1155 FILLER_0_154_728
*1156 FILLER_0_154_740
*1157 FILLER_0_154_752
*1158 FILLER_0_154_764
*1159 FILLER_0_154_776
*1160 FILLER_0_154_782
*1161 FILLER_0_154_784
*1162 FILLER_0_154_796
*1163 FILLER_0_154_800
*1164 FILLER_0_155_702
*1165 FILLER_0_155_714
*1166 FILLER_0_155_726
*1167 FILLER_0_155_728
*1168 FILLER_0_155_740
*1169 FILLER_0_155_752
*1170 FILLER_0_155_756
*1171 FILLER_0_155_768
*1172 FILLER_0_155_780
*1173 FILLER_0_155_784
*1174 FILLER_0_155_796
*1175 FILLER_0_155_800
*1176 FILLER_0_15_702
*1177 FILLER_0_15_714
*1178 FILLER_0_15_726
*1179 FILLER_0_15_738
*1180 FILLER_0_15_750
*1181 FILLER_0_15_754
*1182 FILLER_0_15_756
*1183 FILLER_0_15_768
*1184 FILLER_0_15_780
*1185 FILLER_0_15_792
*1186 FILLER_0_15_800
*1187 FILLER_0_16_702
*1188 FILLER_0_16_714
*1189 FILLER_0_16_726
*1190 FILLER_0_16_728
*1191 FILLER_0_16_740
*1192 FILLER_0_16_752
*1193 FILLER_0_16_764
*1194 FILLER_0_16_776
*1195 FILLER_0_16_782
*1196 FILLER_0_16_784
*1197 FILLER_0_16_796
*1198 FILLER_0_16_800
*1199 FILLER_0_17_702
*1200 FILLER_0_17_714
*1201 FILLER_0_17_726
*1202 FILLER_0_17_738
*1203 FILLER_0_17_750
*1204 FILLER_0_17_754
*1205 FILLER_0_17_756
*1206 FILLER_0_17_768
*1207 FILLER_0_17_780
*1208 FILLER_0_17_792
*1209 FILLER_0_17_800
*1210 FILLER_0_18_702
*1211 FILLER_0_18_714
*1212 FILLER_0_18_726
*1213 FILLER_0_18_728
*1214 FILLER_0_18_740
*1215 FILLER_0_18_752
*1216 FILLER_0_18_764
*1217 FILLER_0_18_776
*1218 FILLER_0_18_782
*1219 FILLER_0_18_784
*1220 FILLER_0_18_796
*1221 FILLER_0_18_800
*1222 FILLER_0_19_702
*1223 FILLER_0_19_714
*1224 FILLER_0_19_726
*1225 FILLER_0_19_738
*1226 FILLER_0_19_750
*1227 FILLER_0_19_754
*1228 FILLER_0_19_756
*1229 FILLER_0_19_768
*1230 FILLER_0_19_780
*1231 FILLER_0_19_792
*1232 FILLER_0_19_800
*1233 FILLER_0_1_105
*1234 FILLER_0_1_111
*1235 FILLER_0_1_113
*1236 FILLER_0_1_125
*1237 FILLER_0_1_137
*1238 FILLER_0_1_149
*1239 FILLER_0_1_15
*1240 FILLER_0_1_161
*1241 FILLER_0_1_169
*1242 FILLER_0_1_223
*1243 FILLER_0_1_225
*1244 FILLER_0_1_27
*1245 FILLER_0_1_271
*1246 FILLER_0_1_297
*1247 FILLER_0_1_3
*1248 FILLER_0_1_337
*1249 FILLER_0_1_341
*1250 FILLER_0_1_39
*1251 FILLER_0_1_390
*1252 FILLER_0_1_393
*1253 FILLER_0_1_410
*1254 FILLER_0_1_430
*1255 FILLER_0_1_434
*1256 FILLER_0_1_447
*1257 FILLER_0_1_449
*1258 FILLER_0_1_454
*1259 FILLER_0_1_503
*1260 FILLER_0_1_505
*1261 FILLER_0_1_509
*1262 FILLER_0_1_51
*1263 FILLER_0_1_540
*1264 FILLER_0_1_544
*1265 FILLER_0_1_55
*1266 FILLER_0_1_559
*1267 FILLER_0_1_561
*1268 FILLER_0_1_57
*1269 FILLER_0_1_588
*1270 FILLER_0_1_631
*1271 FILLER_0_1_670
*1272 FILLER_0_1_681
*1273 FILLER_0_1_69
*1274 FILLER_0_1_737
*1275 FILLER_0_1_774
*1276 FILLER_0_1_783
*1277 FILLER_0_1_793
*1278 FILLER_0_1_81
*1279 FILLER_0_1_93
*1280 FILLER_0_20_702
*1281 FILLER_0_20_714
*1282 FILLER_0_20_726
*1283 FILLER_0_20_728
*1284 FILLER_0_20_740
*1285 FILLER_0_20_752
*1286 FILLER_0_20_764
*1287 FILLER_0_20_776
*1288 FILLER_0_20_782
*1289 FILLER_0_20_784
*1290 FILLER_0_20_796
*1291 FILLER_0_20_800
*1292 FILLER_0_21_702
*1293 FILLER_0_21_714
*1294 FILLER_0_21_726
*1295 FILLER_0_21_738
*1296 FILLER_0_21_750
*1297 FILLER_0_21_754
*1298 FILLER_0_21_756
*1299 FILLER_0_21_768
*1300 FILLER_0_21_780
*1301 FILLER_0_21_792
*1302 FILLER_0_21_800
*1303 FILLER_0_22_702
*1304 FILLER_0_22_714
*1305 FILLER_0_22_726
*1306 FILLER_0_22_728
*1307 FILLER_0_22_740
*1308 FILLER_0_22_752
*1309 FILLER_0_22_764
*1310 FILLER_0_22_776
*1311 FILLER_0_22_782
*1312 FILLER_0_22_784
*1313 FILLER_0_22_796
*1314 FILLER_0_22_800
*1315 FILLER_0_23_702
*1316 FILLER_0_23_714
*1317 FILLER_0_23_726
*1318 FILLER_0_23_738
*1319 FILLER_0_23_750
*1320 FILLER_0_23_754
*1321 FILLER_0_23_756
*1322 FILLER_0_23_768
*1323 FILLER_0_23_780
*1324 FILLER_0_23_792
*1325 FILLER_0_23_800
*1326 FILLER_0_24_702
*1327 FILLER_0_24_714
*1328 FILLER_0_24_726
*1329 FILLER_0_24_728
*1330 FILLER_0_24_740
*1331 FILLER_0_24_752
*1332 FILLER_0_24_764
*1333 FILLER_0_24_776
*1334 FILLER_0_24_782
*1335 FILLER_0_24_784
*1336 FILLER_0_24_796
*1337 FILLER_0_24_800
*1338 FILLER_0_25_702
*1339 FILLER_0_25_714
*1340 FILLER_0_25_726
*1341 FILLER_0_25_738
*1342 FILLER_0_25_750
*1343 FILLER_0_25_754
*1344 FILLER_0_25_756
*1345 FILLER_0_25_768
*1346 FILLER_0_25_780
*1347 FILLER_0_25_792
*1348 FILLER_0_25_800
*1349 FILLER_0_26_702
*1350 FILLER_0_26_714
*1351 FILLER_0_26_726
*1352 FILLER_0_26_728
*1353 FILLER_0_26_740
*1354 FILLER_0_26_752
*1355 FILLER_0_26_764
*1356 FILLER_0_26_776
*1357 FILLER_0_26_782
*1358 FILLER_0_26_784
*1359 FILLER_0_26_796
*1360 FILLER_0_26_800
*1361 FILLER_0_27_702
*1362 FILLER_0_27_714
*1363 FILLER_0_27_726
*1364 FILLER_0_27_738
*1365 FILLER_0_27_750
*1366 FILLER_0_27_754
*1367 FILLER_0_27_756
*1368 FILLER_0_27_768
*1369 FILLER_0_27_780
*1370 FILLER_0_27_792
*1371 FILLER_0_27_800
*1372 FILLER_0_28_702
*1373 FILLER_0_28_714
*1374 FILLER_0_28_726
*1375 FILLER_0_28_728
*1376 FILLER_0_28_740
*1377 FILLER_0_28_752
*1378 FILLER_0_28_764
*1379 FILLER_0_28_776
*1380 FILLER_0_28_782
*1381 FILLER_0_28_784
*1382 FILLER_0_28_796
*1383 FILLER_0_28_800
*1384 FILLER_0_29_702
*1385 FILLER_0_29_714
*1386 FILLER_0_29_726
*1387 FILLER_0_29_738
*1388 FILLER_0_29_750
*1389 FILLER_0_29_754
*1390 FILLER_0_29_756
*1391 FILLER_0_29_768
*1392 FILLER_0_29_780
*1393 FILLER_0_29_792
*1394 FILLER_0_29_800
*1395 FILLER_0_2_109
*1396 FILLER_0_2_121
*1397 FILLER_0_2_133
*1398 FILLER_0_2_139
*1399 FILLER_0_2_141
*1400 FILLER_0_2_15
*1401 FILLER_0_2_153
*1402 FILLER_0_2_165
*1403 FILLER_0_2_173
*1404 FILLER_0_2_197
*1405 FILLER_0_2_253
*1406 FILLER_0_2_27
*1407 FILLER_0_2_29
*1408 FILLER_0_2_296
*1409 FILLER_0_2_3
*1410 FILLER_0_2_317
*1411 FILLER_0_2_350
*1412 FILLER_0_2_362
*1413 FILLER_0_2_365
*1414 FILLER_0_2_388
*1415 FILLER_0_2_400
*1416 FILLER_0_2_41
*1417 FILLER_0_2_412
*1418 FILLER_0_2_421
*1419 FILLER_0_2_433
*1420 FILLER_0_2_445
*1421 FILLER_0_2_449
*1422 FILLER_0_2_458
*1423 FILLER_0_2_485
*1424 FILLER_0_2_489
*1425 FILLER_0_2_512
*1426 FILLER_0_2_520
*1427 FILLER_0_2_53
*1428 FILLER_0_2_530
*1429 FILLER_0_2_533
*1430 FILLER_0_2_545
*1431 FILLER_0_2_557
*1432 FILLER_0_2_565
*1433 FILLER_0_2_576
*1434 FILLER_0_2_585
*1435 FILLER_0_2_601
*1436 FILLER_0_2_609
*1437 FILLER_0_2_620
*1438 FILLER_0_2_632
*1439 FILLER_0_2_645
*1440 FILLER_0_2_65
*1441 FILLER_0_2_654
*1442 FILLER_0_2_680
*1443 FILLER_0_2_692
*1444 FILLER_0_2_701
*1445 FILLER_0_2_710
*1446 FILLER_0_2_718
*1447 FILLER_0_2_726
*1448 FILLER_0_2_738
*1449 FILLER_0_2_750
*1450 FILLER_0_2_765
*1451 FILLER_0_2_77
*1452 FILLER_0_2_777
*1453 FILLER_0_2_789
*1454 FILLER_0_2_83
*1455 FILLER_0_2_85
*1456 FILLER_0_2_97
*1457 FILLER_0_30_702
*1458 FILLER_0_30_714
*1459 FILLER_0_30_726
*1460 FILLER_0_30_728
*1461 FILLER_0_30_740
*1462 FILLER_0_30_752
*1463 FILLER_0_30_764
*1464 FILLER_0_30_776
*1465 FILLER_0_30_782
*1466 FILLER_0_30_784
*1467 FILLER_0_30_796
*1468 FILLER_0_30_800
*1469 FILLER_0_31_702
*1470 FILLER_0_31_714
*1471 FILLER_0_31_726
*1472 FILLER_0_31_738
*1473 FILLER_0_31_750
*1474 FILLER_0_31_754
*1475 FILLER_0_31_756
*1476 FILLER_0_31_768
*1477 FILLER_0_31_780
*1478 FILLER_0_31_792
*1479 FILLER_0_31_800
*1480 FILLER_0_32_702
*1481 FILLER_0_32_714
*1482 FILLER_0_32_726
*1483 FILLER_0_32_728
*1484 FILLER_0_32_740
*1485 FILLER_0_32_752
*1486 FILLER_0_32_764
*1487 FILLER_0_32_776
*1488 FILLER_0_32_782
*1489 FILLER_0_32_784
*1490 FILLER_0_32_796
*1491 FILLER_0_32_800
*1492 FILLER_0_33_702
*1493 FILLER_0_33_714
*1494 FILLER_0_33_726
*1495 FILLER_0_33_738
*1496 FILLER_0_33_750
*1497 FILLER_0_33_754
*1498 FILLER_0_33_756
*1499 FILLER_0_33_768
*1500 FILLER_0_33_780
*1501 FILLER_0_33_792
*1502 FILLER_0_33_800
*1503 FILLER_0_34_702